/*--------------------------------*- C++ -*----------------------------------*\
| OpenFOAM Ahmed body case — generated by ParaKoop/openfoam/ahmed_case_generator.py |
\*---------------------------------------------------------------------------*/
FoamFile
{
    version     2.0;
    format      ascii;
    class       dictionary;
    location    "constant";
    object      transportProperties;
}
// * * * * * * * * * * * * * * * * * * * * * * * * * * * * * * * * * * * * * //

transportModel  Newtonian;
nu              1.5160e-05;
